Basecase for CO2 injection                                                      
ROCKS----1----*----2----*----3----*----4----*----5----*----6----*----7----*----8
SAND     2    2700.0      0.25   5.0e-13   5.0e-11   5.0e-11       3.9    1000.0
    1.0e-8                 7.4       0.7                                                  
    7            0.9       0.4      0.75      0.25                              
    7            0.5       0.0    5.0e-5     1.0e7     0.999                    
WELL     2   2.64e43      0.99   5.0e-13   5.0e-11   5.0e-11       3.9    1000.0
    1.0e-8                 7.4       0.7                                                  
    7            0.9       0.4      0.75      0.25                              
    7            0.5       0.0    5.0e-5     1.0e7     0.999                    

MULTI----1----*----2----*----3----*----4----*----5----*----6----*----7----*----8
    3    4    3    6                                                            
START----1----*----2----*----3----*----4----*----5----*----6----*----7----*----8
PARAM----1-MOP: 123456789*123456789*1234----*----5----*----6----*----7----*----8
   29999    10001   1 1       04    8                                           
       1.0   7.887e8     100.0     1.0e8                9.81       4.0          
    1.0e-5       1.0                                                            
                                                                                
                                                                                
SELEC----1----*----2----*----3----*----4----*----5----*----6----*----7----*----8
    1                                                 3                         
       0.8       0.8                                                            
MOMOP----1----*----2----*----3----*----4----*----5----*----6----*----7----*----8
2                                                                               
TIMES----1----*----2----*----3----*----4----*----5----*----6----*----7----*----8
  101                                                                           
       0.0 7889400.0   1.578e7   2.367e7   3.156e7   3.945e7   4.734e7   5.523e7
   6.312e7     7.1e7   7.889e7   8.678e7   9.467e7   1.026e8   1.105e8   1.183e8
   1.262e8   1.341e8    1.42e8   1.499e8   1.578e8   1.657e8   1.736e8   1.815e8
   1.893e8   1.972e8   2.051e8    2.13e8   2.209e8   2.288e8   2.367e8   2.446e8
   2.525e8   2.604e8   2.682e8   2.761e8    2.84e8   2.919e8   2.998e8   3.077e8
   3.156e8   3.235e8   3.314e8   3.392e8   3.471e8    3.55e8   3.629e8   3.708e8
   3.787e8   3.866e8   3.945e8   4.024e8   4.102e8   4.181e8    4.26e8   4.339e8
   4.418e8   4.497e8   4.576e8   4.655e8   4.734e8   4.813e8   4.891e8    4.97e8
   5.049e8   5.128e8   5.207e8   5.286e8   5.365e8   5.444e8   5.523e8   5.601e8
    5.68e8   5.759e8   5.838e8   5.917e8   5.996e8   6.075e8   6.154e8   6.233e8
   6.312e8    6.39e8   6.469e8   6.548e8   6.627e8   6.706e8   6.785e8   6.864e8
   6.943e8   7.022e8     7.1e8   7.179e8   7.258e8   7.337e8   7.416e8   7.495e8
   7.574e8   7.653e8   7.732e8   7.811e8   7.889e8                              
GENER----1----*----2----*----3----*----4----*----5----*----6----*----7----*----8
00211                              COM3  7.4322e-4                              
00211                              COM1  1.2387e-8                              
00212                              COM3  7.4284e-4                              
00212                              COM1  1.2380e-8                              
00260                              COM3  7.4106e-4                              
00260                              COM1  1.2351e-8                              
00266                              COM3  7.4082e-4                              
00266                              COM1  1.2347e-8                              
00271                              COM3  7.4095e-4                              
00271                              COM1  1.2349e-8                              
00300                              COM3  7.4147e-4                              
00300                              COM1  1.2357e-8                              
00301                              COM3  7.4135e-4                              
00301                              COM1  1.2355e-8                              
00328                              COM3  7.4123e-4                              
00328                              COM1  1.2353e-8                              
00329                              COM3  7.4110e-4                              
00329                              COM1  1.2351e-8                              
00331                              COM3  7.4070e-4                              
00331                              COM1  1.2345e-8                              
00332                              COM3  7.4099e-4                              
00332                              COM1  1.2349e-8                              
00628                              COM3  7.4139e-4                              
00628                              COM1  1.2356e-8                              
00A56                              COM3  7.4127e-4                              
00A56                              COM1  1.2354e-8                              
00A67                              COM3  7.4114e-4                              
00A67                              COM1  1.2352e-8                              
00J03                              COM3  7.4086e-4                              
00J03                              COM1  1.2347e-8                              
00J06                              COM3  7.4062e-4                              
00J06                              COM1  1.2343e-8                              
00J17                              COM3  7.4044e-4                              
00J17                              COM1  1.2340e-8                              
00J18                              COM3  7.4085e-4                              
00J18                              COM1  1.2347e-8                              
00J19                              COM3  7.4056e-4                              
00J19                              COM1  1.2342e-8                              
00J20                              COM3  7.4073e-4                              
00J20                              COM1  1.2345e-8                              
00J34                              COM3  7.4050e-4                              
00J34                              COM1  1.2341e-8                              
00X84                              COM3  7.4074e-4                              
00X84                              COM1  1.2345e-8                              
00X85                              COM3  7.4062e-4                              
00X85                              COM1  1.2343e-8                              
00X87                              COM3  7.4104e-4                              
00X87                              COM1  1.2350e-8                              
00X90                              COM3  7.4097e-4                              
00X90                              COM1  1.2349e-8                              
00X91                              COM3  7.4067e-4                              
00X91                              COM1  1.2344e-8                              
00X94                              COM3  7.4091e-4                              
00X94                              COM1  1.2348e-8                              
00X95                              COM3  7.4132e-4                              
00X95                              COM1  1.2355e-8                              
00X96                              COM3  7.4121e-4                              
00X96                              COM1  1.2353e-8                              
00X97                              COM3  7.4080e-4                              
00X97                              COM1  1.2346e-8                              
00X98                              COM3  7.4109e-4                              
00X98                              COM1  1.2351e-8                              
00Y09                              COM3  7.4038e-4                              
00Y09                              COM1  1.2339e-8                              
00Y33                              COM3  7.4092e-4                              
00Y33                              COM1  1.2348e-8                              
00Y34                              COM3  7.4080e-4                              
00Y34                              COM1  1.2346e-8                              
00Y38                              COM3  7.4115e-4                              
00Y38                              COM1  1.2352e-8                              
00Y39                              COM3  7.4104e-4                              
00Y39                              COM1  1.2350e-8                              
01M98                              COM3  7.4021e-4                              
01M98                              COM1  1.2336e-8                              
01N00                              COM3  7.4033e-4                              
01N00                              COM1  1.2338e-8                              
01N05                              COM3  7.4053e-4                              
01N05                              COM1  1.2342e-8                              
01N09                              COM3  7.4041e-4                              
01N09                              COM1  1.2340e-8                              
01N10                              COM3  7.4046e-4                              
01N10                              COM1  1.2341e-8                              
01N11                              COM3  7.4076e-4                              
01N11                              COM1  1.2346e-8                              
01N12                              COM3  7.4065e-4                              
01N12                              COM1  1.2344e-8                              
01N13                              COM3  7.4057e-4                              
01N13                              COM1  1.2342e-8                              
01N14                              COM3  7.4068e-4                              
01N14                              COM1  1.2344e-8                              
01N18                              COM3  7.4028e-4                              
01N18                              COM1  1.2338e-8                              
01N19                              COM3  7.4039e-4                              
01N19                              COM1  1.2339e-8                              
01N21                              COM3  7.4084e-4                              
01N21                              COM1  1.2347e-8                              
01N22                              COM3  7.4031e-4                              
01N22                              COM1  1.2338e-8                              
01N26                              COM3  7.4073e-4                              
01N26                              COM1  1.2345e-8                              
01N38                              COM3  7.4096e-4                              
01N38                              COM1  1.2349e-8                              
01N45                              COM3  7.4107e-4                              
01N45                              COM1  1.2351e-8                              
01T60                              COM3  7.4016e-4                              
01T60                              COM1  1.2336e-8                              
02I19                              COM3  7.4082e-4                              
02I19                              COM1  1.2347e-8                              
02I20                              COM3  7.4051e-4                              
02I20                              COM1  1.2341e-8                              
02I21                              COM3  7.4071e-4                              
02I21                              COM1  1.2345e-8                              
02L02                              COM3  7.4019e-4                              
02L02                              COM1  1.2336e-8                              
02L03                              COM3  7.4061e-4                              
02L03                              COM1  1.2343e-8                              
02L04                              COM3  7.4093e-4                              
02L04                              COM1  1.2348e-8                              
02L06                              COM3  7.4098e-4                              
02L06                              COM1  1.2349e-8                              
02L07                              COM3  7.4088e-4                              
02L07                              COM1  1.2348e-8                              
02L08                              COM3  7.4111e-4                              
02L08                              COM1  1.2351e-8                              
02L39                              COM3  7.4059e-4                              
02L39                              COM1  1.2343e-8                              
02S73                              COM3  7.4038e-4                              
02S73                              COM1  1.2339e-8                              
02S74                              COM3  7.4026e-4                              
02S74                              COM1  1.2337e-8                              
02S75                              COM3  7.4049e-4                              
02S75                              COM1  1.2341e-8                              
03O76                              COM3  7.4069e-4                              
03O76                              COM1  1.2344e-8                              
03O80                              COM3  7.4059e-4                              
03O80                              COM1  1.2343e-8                              
03O83                              COM3  7.4015e-4                              
03O83                              COM1  1.2335e-8                              
03O84                              COM3  7.3853e-4                              
03O84                              COM1  1.2308e-8                              
03O85                              COM3  7.4025e-4                              
03O85                              COM1  1.2337e-8                              
03O86                              COM3  7.4037e-4                              
03O86                              COM1  1.2339e-8                              
03O87                              COM3  7.3899e-4                              
03O87                              COM1  1.2316e-8                              
03O91                              COM3  7.4080e-4                              
03O91                              COM1  1.2346e-8                              
03O97                              COM3  7.4004e-4                              
03O97                              COM1  1.2334e-8                              
03O98                              COM3  7.4014e-4                              
03O98                              COM1  1.2335e-8                              
03O99                              COM3  7.4048e-4                              
03O99                              COM1  1.2341e-8                              
03P05                              COM3  7.4092e-4                              
03P05                              COM1  1.2348e-8                              
04S71                              COM3  7.4082e-4                              
04S71                              COM1  1.2347e-8                              
04S76                              COM3  7.4069e-4                              
04S76                              COM1  1.2344e-8                              
05M74                              COM3  7.4059e-4                              
05M74                              COM1  1.2343e-8                              

ENDCY----1----*----2----*----3----*----4----*----5----*----6----*----7----*----8
