Basecase for CO2 injection                                                      
ROCKS----1----*----2----*----3----*----4----*----5----*----6----*----7----*----8
SAND     2    2700.0      0.25   5.0e-13   5.0e-11   5.0e-11       3.9    1000.0
   1.0e-08                 7.4       0.7                                                  
    7            0.9       0.4      0.75      0.25                              
    7            0.5       0.0   5.0e-05   1.0e+07     0.999                    
WELL     2  2.64e+43      0.99   5.0e-13   5.0e-11   5.0e-11       3.9    1000.0
   1.0e-08                 7.4       0.7                                                  
    7            0.9       0.4      0.75      0.25                              
    7            0.5       0.0   5.0e-05   1.0e+07     0.999                    

MULTI----1----*----2----*----3----*----4----*----5----*----6----*----7----*----8
    3    4    3    6                                                            
START----1----*----2----*----3----*----4----*----5----*----6----*----7----*----8
PARAM----1-MOP: 123456789*123456789*1234----*----5----*----6----*----7----*----8
   29999    10001   1 1       04    8                                           
       1.0 7.887e+081.0000e+02   1.0e+08                9.81       4.0          
   1.0e-05       1.0                                                            
                                                                                
                                                                                
SELEC----1----*----2----*----3----*----4----*----5----*----6----*----7----*----8
    1                                                 3                         
       0.8       0.8                                                            
MOMOP----1----*----2----*----3----*----4----*----5----*----6----*----7----*----8
2                                                                               
TIMES----1----*----2----*----3----*----4----*----5----*----6----*----7----*----8
  101                                                                           
       0.0 7889400.0 1.578e+07 2.367e+07 3.156e+07 3.945e+07 4.734e+07 5.523e+07
 6.312e+07   7.1e+07 7.889e+07 8.678e+07 9.467e+07 1.026e+08 1.105e+08 1.183e+08
 1.262e+08 1.341e+08  1.42e+08 1.499e+08 1.578e+08 1.657e+08 1.736e+08 1.815e+08
 1.893e+08 1.972e+08 2.051e+08  2.13e+08 2.209e+08 2.288e+08 2.367e+08 2.446e+08
 2.525e+08 2.604e+08 2.682e+08 2.761e+08  2.84e+08 2.919e+08 2.998e+08 3.077e+08
 3.156e+08 3.235e+08 3.314e+08 3.392e+08 3.471e+08  3.55e+08 3.629e+08 3.708e+08
 3.787e+08 3.866e+08 3.945e+08 4.024e+08 4.102e+08 4.181e+08  4.26e+08 4.339e+08
 4.418e+08 4.497e+08 4.576e+08 4.655e+08 4.734e+08 4.813e+08 4.891e+08  4.97e+08
 5.049e+08 5.128e+08 5.207e+08 5.286e+08 5.365e+08 5.444e+08 5.523e+08 5.601e+08
  5.68e+08 5.759e+08 5.838e+08 5.917e+08 5.996e+08 6.075e+08 6.154e+08 6.233e+08
 6.312e+08  6.39e+08 6.469e+08 6.548e+08 6.627e+08 6.706e+08 6.785e+08 6.864e+08
 6.943e+08 7.022e+08   7.1e+08 7.179e+08 7.258e+08 7.337e+08 7.416e+08 7.495e+08
 7.574e+08 7.653e+08 7.732e+08 7.811e+08 7.889e+08                              
GENER----1----*----2----*----3----*----4----*----5----*----6----*----7----*----8
00211                              COM3  7.432e-04                              
00211                              COM1  1.239e-08                              
00212                              COM3  7.428e-04                              
00212                              COM1  1.238e-08                              
00260                              COM3  7.411e-04                              
00260                              COM1  1.235e-08                              
00266                              COM3  7.408e-04                              
00266                              COM1  1.235e-08                              
00271                              COM3   7.41e-04                              
00271                              COM1  1.235e-08                              
00300                              COM3  7.415e-04                              
00300                              COM1  1.236e-08                              
00301                              COM3  7.414e-04                              
00301                              COM1  1.236e-08                              
00328                              COM3  7.412e-04                              
00328                              COM1  1.235e-08                              
00329                              COM3  7.411e-04                              
00329                              COM1  1.235e-08                              
00331                              COM3  7.407e-04                              
00331                              COM1  1.235e-08                              
00332                              COM3   7.41e-04                              
00332                              COM1  1.235e-08                              
00628                              COM3  7.414e-04                              
00628                              COM1  1.236e-08                              
00A56                              COM3  7.413e-04                              
00A56                              COM1  1.235e-08                              
00A67                              COM3  7.411e-04                              
00A67                              COM1  1.235e-08                              
00J03                              COM3  7.409e-04                              
00J03                              COM1  1.235e-08                              
00J06                              COM3  7.406e-04                              
00J06                              COM1  1.234e-08                              
00J17                              COM3  7.404e-04                              
00J17                              COM1  1.234e-08                              
00J18                              COM3  7.409e-04                              
00J18                              COM1  1.235e-08                              
00J19                              COM3  7.406e-04                              
00J19                              COM1  1.234e-08                              
00J20                              COM3  7.407e-04                              
00J20                              COM1  1.235e-08                              
00J34                              COM3  7.405e-04                              
00J34                              COM1  1.234e-08                              
00X84                              COM3  7.407e-04                              
00X84                              COM1  1.235e-08                              
00X85                              COM3  7.406e-04                              
00X85                              COM1  1.234e-08                              
00X87                              COM3   7.41e-04                              
00X87                              COM1  1.235e-08                              
00X90                              COM3   7.41e-04                              
00X90                              COM1  1.235e-08                              
00X91                              COM3  7.407e-04                              
00X91                              COM1  1.234e-08                              
00X94                              COM3  7.409e-04                              
00X94                              COM1  1.235e-08                              
00X95                              COM3  7.413e-04                              
00X95                              COM1  1.236e-08                              
00X96                              COM3  7.412e-04                              
00X96                              COM1  1.235e-08                              
00X97                              COM3  7.408e-04                              
00X97                              COM1  1.235e-08                              
00X98                              COM3  7.411e-04                              
00X98                              COM1  1.235e-08                              
00Y09                              COM3  7.404e-04                              
00Y09                              COM1  1.234e-08                              
00Y33                              COM3  7.409e-04                              
00Y33                              COM1  1.235e-08                              
00Y34                              COM3  7.408e-04                              
00Y34                              COM1  1.235e-08                              
00Y38                              COM3  7.412e-04                              
00Y38                              COM1  1.235e-08                              
00Y39                              COM3   7.41e-04                              
00Y39                              COM1  1.235e-08                              
01M98                              COM3  7.402e-04                              
01M98                              COM1  1.234e-08                              
01N00                              COM3  7.403e-04                              
01N00                              COM1  1.234e-08                              
01N05                              COM3  7.405e-04                              
01N05                              COM1  1.234e-08                              
01N09                              COM3  7.404e-04                              
01N09                              COM1  1.234e-08                              
01N10                              COM3  7.405e-04                              
01N10                              COM1  1.234e-08                              
01N11                              COM3  7.408e-04                              
01N11                              COM1  1.235e-08                              
01N12                              COM3  7.407e-04                              
01N12                              COM1  1.234e-08                              
01N13                              COM3  7.406e-04                              
01N13                              COM1  1.234e-08                              
01N14                              COM3  7.407e-04                              
01N14                              COM1  1.234e-08                              
01N18                              COM3  7.403e-04                              
01N18                              COM1  1.234e-08                              
01N19                              COM3  7.404e-04                              
01N19                              COM1  1.234e-08                              
01N21                              COM3  7.408e-04                              
01N21                              COM1  1.235e-08                              
01N22                              COM3  7.403e-04                              
01N22                              COM1  1.234e-08                              
01N26                              COM3  7.407e-04                              
01N26                              COM1  1.235e-08                              
01N38                              COM3   7.41e-04                              
01N38                              COM1  1.235e-08                              
01N45                              COM3  7.411e-04                              
01N45                              COM1  1.235e-08                              
01T60                              COM3  7.402e-04                              
01T60                              COM1  1.234e-08                              
02I19                              COM3  7.408e-04                              
02I19                              COM1  1.235e-08                              
02I20                              COM3  7.405e-04                              
02I20                              COM1  1.234e-08                              
02I21                              COM3  7.407e-04                              
02I21                              COM1  1.235e-08                              
02L02                              COM3  7.402e-04                              
02L02                              COM1  1.234e-08                              
02L03                              COM3  7.406e-04                              
02L03                              COM1  1.234e-08                              
02L04                              COM3  7.409e-04                              
02L04                              COM1  1.235e-08                              
02L06                              COM3   7.41e-04                              
02L06                              COM1  1.235e-08                              
02L07                              COM3  7.409e-04                              
02L07                              COM1  1.235e-08                              
02L08                              COM3  7.411e-04                              
02L08                              COM1  1.235e-08                              
02L39                              COM3  7.406e-04                              
02L39                              COM1  1.234e-08                              
02S73                              COM3  7.404e-04                              
02S73                              COM1  1.234e-08                              
02S74                              COM3  7.403e-04                              
02S74                              COM1  1.234e-08                              
02S75                              COM3  7.405e-04                              
02S75                              COM1  1.234e-08                              
03O76                              COM3  7.407e-04                              
03O76                              COM1  1.234e-08                              
03O80                              COM3  7.406e-04                              
03O80                              COM1  1.234e-08                              
03O83                              COM3  7.402e-04                              
03O83                              COM1  1.234e-08                              
03O84                              COM3  7.385e-04                              
03O84                              COM1  1.231e-08                              
03O85                              COM3  7.403e-04                              
03O85                              COM1  1.234e-08                              
03O86                              COM3  7.404e-04                              
03O86                              COM1  1.234e-08                              
03O87                              COM3   7.39e-04                              
03O87                              COM1  1.232e-08                              
03O91                              COM3  7.408e-04                              
03O91                              COM1  1.235e-08                              
03O97                              COM3    7.4e-04                              
03O97                              COM1  1.233e-08                              
03O98                              COM3  7.401e-04                              
03O98                              COM1  1.234e-08                              
03O99                              COM3  7.405e-04                              
03O99                              COM1  1.234e-08                              
03P05                              COM3  7.409e-04                              
03P05                              COM1  1.235e-08                              
04S71                              COM3  7.408e-04                              
04S71                              COM1  1.235e-08                              
04S76                              COM3  7.407e-04                              
04S76                              COM1  1.234e-08                              
05M74                              COM3  7.406e-04                              
05M74                              COM1  1.234e-08                              

ENDCY----1----*----2----*----3----*----4----*----5----*----6----*----7----*----8
