Basecase for CO2 injection                                                      
ROCKS----1----*----2----*----3----*----4----*----5----*----6----*----7----*----8
SAND     2    2700.0      0.25   5.0e-13   5.0e-11   5.0e-11       3.9    1000.0
    1.0e-8                 7.4       0.7                                                  
    7            0.9       0.4      0.75      0.25                              
    7            0.5       0.0    5.0e-5     1.0e7     0.999                    
WELL     2   2.64e43      0.99   5.0e-13   5.0e-11   5.0e-11       3.9    1000.0
    1.0e-8                 7.4       0.7                                                  
    7            0.9       0.4      0.75      0.25                              
    7            0.5       0.0    5.0e-5     1.0e7     0.999                    

MULTI----1----*----2----*----3----*----4----*----5----*----6----*----7----*----8
    3    4    3    6                                                            
START----1----*----2----*----3----*----4----*----5----*----6----*----7----*----8
PARAM----1-MOP: 123456789*123456789*1234----*----5----*----6----*----7----*----8
   29999    10001   1 1       04    8                                           
       1.0   7.887e8     100.0     1.0e8                9.81       4.0          
    1.0e-5       1.0                                                            
                                                                                
                                                                                
SELEC----1----*----2----*----3----*----4----*----5----*----6----*----7----*----8
    1                                                 3                         
       0.8       0.8                                                            
MOMOP----1----*----2----*----3----*----4----*----5----*----6----*----7----*----8
2                                                                               
TIMES----1----*----2----*----3----*----4----*----5----*----6----*----7----*----8
  101                                                                           
       0.0 7889400.0   1.578e7   2.367e7   3.156e7   3.945e7   4.734e7   5.523e7
   6.312e7     7.1e7   7.889e7   8.678e7   9.467e7   1.026e8   1.105e8   1.183e8
   1.262e8   1.341e8    1.42e8   1.499e8   1.578e8   1.657e8   1.736e8   1.815e8
   1.893e8   1.972e8   2.051e8    2.13e8   2.209e8   2.288e8   2.367e8   2.446e8
   2.525e8   2.604e8   2.682e8   2.761e8    2.84e8   2.919e8   2.998e8   3.077e8
   3.156e8   3.235e8   3.314e8   3.392e8   3.471e8    3.55e8   3.629e8   3.708e8
   3.787e8   3.866e8   3.945e8   4.024e8   4.102e8   4.181e8    4.26e8   4.339e8
   4.418e8   4.497e8   4.576e8   4.655e8   4.734e8   4.813e8   4.891e8    4.97e8
   5.049e8   5.128e8   5.207e8   5.286e8   5.365e8   5.444e8   5.523e8   5.601e8
    5.68e8   5.759e8   5.838e8   5.917e8   5.996e8   6.075e8   6.154e8   6.233e8
   6.312e8    6.39e8   6.469e8   6.548e8   6.627e8   6.706e8   6.785e8   6.864e8
   6.943e8   7.022e8     7.1e8   7.179e8   7.258e8   7.337e8   7.416e8   7.495e8
   7.574e8   7.653e8   7.732e8   7.811e8   7.889e8                              
GENER----1----*----2----*----3----*----4----*----5----*----6----*----7----*----8
00193                              COM3  7.3993e-4                              
00193                              COM1  1.2332e-8                              
00194                              COM3  7.3950e-4                              
00194                              COM1  1.2325e-8                              
00350                              COM3  7.4143e-4                              
00350                              COM1  1.2357e-8                              
00351                              COM3  7.4104e-4                              
00351                              COM1  1.2350e-8                              
00352                              COM3  7.4132e-4                              
00352                              COM1  1.2355e-8                              
00353                              COM3  7.4090e-4                              
00353                              COM1  1.2348e-8                              
00355                              COM3  7.4080e-4                              
00355                              COM1  1.2346e-8                              
00356                              COM3  7.4066e-4                              
00356                              COM1  1.2344e-8                              
00357                              COM3  7.4107e-4                              
00357                              COM1  1.2351e-8                              
00358                              COM3  7.4120e-4                              
00358                              COM1  1.2353e-8                              
00365                              COM3  7.4095e-4                              
00365                              COM1  1.2349e-8                              
00368                              COM3  7.4084e-4                              
00368                              COM1  1.2347e-8                              
00379                              COM3  7.4071e-4                              
00379                              COM1  1.2345e-8                              
00380                              COM3  7.4112e-4                              
00380                              COM1  1.2352e-8                              
00381                              COM3  7.4124e-4                              
00381                              COM1  1.2354e-8                              
00395                              COM3  7.4106e-4                              
00395                              COM1  1.2351e-8                              
00396                              COM3  7.4118e-4                              
00396                              COM1  1.2353e-8                              
00496                              COM3  7.4058e-4                              
00496                              COM1  1.2343e-8                              
00535                              COM3  7.4101e-4                              
00535                              COM1  1.2350e-8                              
00538                              COM3  7.4077e-4                              
00538                              COM1  1.2346e-8                              
00539                              COM3  7.4088e-4                              
00539                              COM1  1.2348e-8                              
00540                              COM3  7.4136e-4                              
00540                              COM1  1.2356e-8                              
00541                              COM3  7.4129e-4                              
00541                              COM1  1.2354e-8                              
00542                              COM3  7.4065e-4                              
00542                              COM1  1.2344e-8                              
00801                              COM3  7.4041e-4                              
00801                              COM1  1.2340e-8                              
00806                              COM3  7.4052e-4                              
00806                              COM1  1.2342e-8                              
00826                              COM3  7.4108e-4                              
00826                              COM1  1.2351e-8                              
00828                              COM3  7.4077e-4                              
00828                              COM1  1.2346e-8                              
00830                              COM3  7.4066e-4                              
00830                              COM1  1.2344e-8                              
00831                              COM3  7.4096e-4                              
00831                              COM1  1.2349e-8                              
00832                              COM3  7.4054e-4                              
00832                              COM1  1.2342e-8                              
00833                              COM3  7.4084e-4                              
00833                              COM1  1.2347e-8                              
00834                              COM3  7.4042e-4                              
00834                              COM1  1.2340e-8                              
00837                              COM3  7.4035e-4                              
00837                              COM1  1.2339e-8                              
00838                              COM3  7.4073e-4                              
00838                              COM1  1.2345e-8                              
00852                              COM3  7.4090e-4                              
00852                              COM1  1.2348e-8                              
00853                              COM3  7.4047e-4                              
00853                              COM1  1.2341e-8                              
00854                              COM3  7.4031e-4                              
00854                              COM1  1.2338e-8                              
00C76                              COM3  7.4016e-4                              
00C76                              COM1  1.2336e-8                              
00C90                              COM3  7.4027e-4                              
00C90                              COM1  1.2337e-8                              
00C91                              COM3  7.4038e-4                              
00C91                              COM1  1.2339e-8                              
00C92                              COM3  7.4070e-4                              
00C92                              COM1  1.2345e-8                              
00C93                              COM3  7.4058e-4                              
00C93                              COM1  1.2343e-8                              
00C95                              COM3  7.4081e-4                              
00C95                              COM1  1.2346e-8                              
00C96                              COM3  7.4051e-4                              
00C96                              COM1  1.2341e-8                              
00C98                              COM3  7.4101e-4                              
00C98                              COM1  1.2350e-8                              
00C99                              COM3  7.4059e-4                              
00C99                              COM1  1.2343e-8                              
00D54                              COM3  7.4025e-4                              
00D54                              COM1  1.2337e-8                              
00D55                              COM3  7.4037e-4                              
00D55                              COM1  1.2339e-8                              
00N49                              COM3  7.4103e-4                              
00N49                              COM1  1.2350e-8                              
00N50                              COM3  7.4062e-4                              
00N50                              COM1  1.2343e-8                              
00N51                              COM3  7.4018e-4                              
00N51                              COM1  1.2336e-8                              
00N52                              COM3  7.4094e-4                              
00N52                              COM1  1.2349e-8                              
00N54                              COM3  7.4112e-4                              
00N54                              COM1  1.2352e-8                              
00N56                              COM3  7.4070e-4                              
00N56                              COM1  1.2345e-8                              
00O41                              COM3  7.4047e-4                              
00O41                              COM1  1.2341e-8                              
00O81                              COM3  7.4451e-4                              
00O81                              COM1  1.2408e-8                              
00O98                              COM3  7.4034e-4                              
00O98                              COM1  1.2339e-8                              
00O99                              COM3  7.4022e-4                              
00O99                              COM1  1.2337e-8                              
00P01                              COM3  7.4000e-4                              
00P01                              COM1  1.2333e-8                              
00P02                              COM3  7.4068e-4                              
00P02                              COM1  1.2344e-8                              
00P03                              COM3  7.4023e-4                              
00P03                              COM1  1.2337e-8                              
00P04                              COM3  7.4035e-4                              
00P04                              COM1  1.2339e-8                              
00P05                              COM3  7.4056e-4                              
00P05                              COM1  1.2342e-8                              
00P06                              COM3  7.4013e-4                              
00P06                              COM1  1.2335e-8                              
01B60                              COM3  7.4082e-4                              
01B60                              COM1  1.2347e-8                              
01D30                              COM3  7.4046e-4                              
01D30                              COM1  1.2341e-8                              
01D31                              COM3  7.4078e-4                              
01D31                              COM1  1.2346e-8                              
01D33                              COM3  7.4011e-4                              
01D33                              COM1  1.2335e-8                              
01D34                              COM3  7.4013e-4                              
01D34                              COM1  1.2335e-8                              
01D35                              COM3  7.4057e-4                              
01D35                              COM1  1.2342e-8                              
01D36                              COM3  7.4068e-4                              
01D36                              COM1  1.2344e-8                              
01D38                              COM3  7.4044e-4                              
01D38                              COM1  1.2340e-8                              
02A79                              COM3  7.4094e-4                              
02A79                              COM1  1.2349e-8                              
02D07                              COM3  7.4079e-4                              
02D07                              COM1  1.2346e-8                              
02D08                              COM3  7.4091e-4                              
02D08                              COM1  1.2348e-8                              
02E24                              COM3  7.4088e-4                              
02E24                              COM1  1.2348e-8                              
03K19                              COM3  7.4078e-4                              
03K19                              COM1  1.2346e-8                              
03K21                              COM3  7.4068e-4                              
03K21                              COM1  1.2344e-8                              
04N25                              COM3  7.4056e-4                              
04N25                              COM1  1.2342e-8                              
04N28                              COM3  7.4193e-4                              
04N28                              COM1  1.2365e-8                              

ENDCY----1----*----2----*----3----*----4----*----5----*----6----*----7----*----8
