Basecase for CO2 injection                                                      
ROCKS----1----*----2----*----3----*----4----*----5----*----6----*----7----*----8
SAND     2    2700.0      0.25   5.0e-13   5.0e-11   5.0e-11       3.9    1000.0
    1.0e-8                 7.4       0.7                                                  
    7            0.9       0.4      0.75      0.25                              
    7            0.5       0.0    5.0e-5     1.0e7     0.999                    
WELL     2   2.64e43      0.99   5.0e-13   5.0e-11   5.0e-11       3.9    1000.0
    1.0e-8                 7.4       0.7                                                  
    7            0.9       0.4      0.75      0.25                              
    7            0.5       0.0    5.0e-5     1.0e7     0.999                    

MULTI----1----*----2----*----3----*----4----*----5----*----6----*----7----*----8
    3    4    3    6                                                            
START----1----*----2----*----3----*----4----*----5----*----6----*----7----*----8
PARAM----1-MOP: 123456789*123456789*1234----*----5----*----6----*----7----*----8
   29999    10001   1 1       04    8                                           
       1.0   7.887e8     100.0     1.0e8                9.81       4.0          
    1.0e-5       1.0                                                            
                                                                                
                                                                                
SELEC----1----*----2----*----3----*----4----*----5----*----6----*----7----*----8
    1                                                 3                         
       0.8       0.8                                                            
MOMOP----1----*----2----*----3----*----4----*----5----*----6----*----7----*----8
2                                                                               
TIMES----1----*----2----*----3----*----4----*----5----*----6----*----7----*----8
  101                                                                           
       0.0 7889400.0   1.578e7   2.367e7   3.156e7   3.945e7   4.734e7   5.523e7
   6.312e7     7.1e7   7.889e7   8.678e7   9.467e7   1.026e8   1.105e8   1.183e8
   1.262e8   1.341e8    1.42e8   1.499e8   1.578e8   1.657e8   1.736e8   1.815e8
   1.893e8   1.972e8   2.051e8    2.13e8   2.209e8   2.288e8   2.367e8   2.446e8
   2.525e8   2.604e8   2.682e8   2.761e8    2.84e8   2.919e8   2.998e8   3.077e8
   3.156e8   3.235e8   3.314e8   3.392e8   3.471e8    3.55e8   3.629e8   3.708e8
   3.787e8   3.866e8   3.945e8   4.024e8   4.102e8   4.181e8    4.26e8   4.339e8
   4.418e8   4.497e8   4.576e8   4.655e8   4.734e8   4.813e8   4.891e8    4.97e8
   5.049e8   5.128e8   5.207e8   5.286e8   5.365e8   5.444e8   5.523e8   5.601e8
    5.68e8   5.759e8   5.838e8   5.917e8   5.996e8   6.075e8   6.154e8   6.233e8
   6.312e8    6.39e8   6.469e8   6.548e8   6.627e8   6.706e8   6.785e8   6.864e8
   6.943e8   7.022e8     7.1e8   7.179e8   7.258e8   7.337e8   7.416e8   7.495e8
   7.574e8   7.653e8   7.732e8   7.811e8   7.889e8                              
GENER----1----*----2----*----3----*----4----*----5----*----6----*----7----*----8
00211                              COM3  7.4319e-4                              
00211                              COM1  1.2386e-8                              
00212                              COM3  7.4280e-4                              
00212                              COM1  1.2380e-8                              
00260                              COM3  7.4103e-4                              
00260                              COM1  1.2350e-8                              
00270                              COM3  7.4078e-4                              
00270                              COM1  1.2346e-8                              
00275                              COM3  7.4091e-4                              
00275                              COM1  1.2348e-8                              
00298                              COM3  7.4143e-4                              
00298                              COM1  1.2357e-8                              
00336                              COM3  7.4131e-4                              
00336                              COM1  1.2355e-8                              
00339                              COM3  7.4119e-4                              
00339                              COM1  1.2353e-8                              
00340                              COM3  7.4106e-4                              
00340                              COM1  1.2351e-8                              
00342                              COM3  7.4066e-4                              
00342                              COM1  1.2344e-8                              
00343                              COM3  7.4095e-4                              
00343                              COM1  1.2349e-8                              
00632                              COM3  7.4136e-4                              
00632                              COM1  1.2356e-8                              
00A26                              COM3  7.4124e-4                              
00A26                              COM1  1.2354e-8                              
00A37                              COM3  7.4111e-4                              
00A37                              COM1  1.2351e-8                              
00J19                              COM3  7.4082e-4                              
00J19                              COM1  1.2347e-8                              
00J22                              COM3  7.4058e-4                              
00J22                              COM1  1.2343e-8                              
00J33                              COM3  7.4040e-4                              
00J33                              COM1  1.2340e-8                              
00J34                              COM3  7.4081e-4                              
00J34                              COM1  1.2346e-8                              
00J35                              COM3  7.4052e-4                              
00J35                              COM1  1.2342e-8                              
00J36                              COM3  7.4070e-4                              
00J36                              COM1  1.2345e-8                              
00J50                              COM3  7.4046e-4                              
00J50                              COM1  1.2341e-8                              
00Y68                              COM3  7.4071e-4                              
00Y68                              COM1  1.2345e-8                              
00Y69                              COM3  7.4059e-4                              
00Y69                              COM1  1.2343e-8                              
00Y71                              COM3  7.4100e-4                              
00Y71                              COM1  1.2350e-8                              
00Y73                              COM3  7.4094e-4                              
00Y73                              COM1  1.2349e-8                              
00Y74                              COM3  7.4064e-4                              
00Y74                              COM1  1.2344e-8                              
00Y77                              COM3  7.4088e-4                              
00Y77                              COM1  1.2348e-8                              
00Y79                              COM3  7.4129e-4                              
00Y79                              COM1  1.2354e-8                              
00Y80                              COM3  7.4117e-4                              
00Y80                              COM1  1.2352e-8                              
00Y81                              COM3  7.4076e-4                              
00Y81                              COM1  1.2346e-8                              
00Y82                              COM3  7.4105e-4                              
00Y82                              COM1  1.2350e-8                              
00Y98                              COM3  7.4035e-4                              
00Y98                              COM1  1.2339e-8                              
01014                              COM3  7.4088e-4                              
01014                              COM1  1.2348e-8                              
01015                              COM3  7.4076e-4                              
01015                              COM1  1.2346e-8                              
01019                              COM3  7.4111e-4                              
01019                              COM1  1.2351e-8                              
01020                              COM3  7.4100e-4                              
01020                              COM1  1.2350e-8                              
01N80                              COM3  7.4030e-4                              
01N80                              COM1  1.2338e-8                              
01N82                              COM3  7.4018e-4                              
01N82                              COM1  1.2336e-8                              
01N86                              COM3  7.4049e-4                              
01N86                              COM1  1.2341e-8                              
01N90                              COM3  7.4037e-4                              
01N90                              COM1  1.2339e-8                              
01N91                              COM3  7.4042e-4                              
01N91                              COM1  1.2340e-8                              
01N92                              COM3  7.4073e-4                              
01N92                              COM1  1.2345e-8                              
01N93                              COM3  7.4061e-4                              
01N93                              COM1  1.2343e-8                              
01N94                              COM3  7.4053e-4                              
01N94                              COM1  1.2342e-8                              
01N95                              COM3  7.4065e-4                              
01N95                              COM1  1.2344e-8                              
01N96                              COM3  7.4080e-4                              
01N96                              COM1  1.2346e-8                              
01N97                              COM3  7.4027e-4                              
01N97                              COM1  1.2337e-8                              
01O01                              COM3  7.4069e-4                              
01O01                              COM1  1.2344e-8                              
01O04                              COM3  7.4035e-4                              
01O04                              COM1  1.2339e-8                              
01O05                              COM3  7.4024e-4                              
01O05                              COM1  1.2337e-8                              
01O07                              COM3  7.4012e-4                              
01O07                              COM1  1.2335e-8                              
01O17                              COM3  7.4055e-4                              
01O17                              COM1  1.2342e-8                              
01O20                              COM3  7.4092e-4                              
01O20                              COM1  1.2348e-8                              
02K57                              COM3  7.4015e-4                              
02K57                              COM1  1.2335e-8                              
02K58                              COM3  7.4057e-4                              
02K58                              COM1  1.2342e-8                              
02K59                              COM3  7.4047e-4                              
02K59                              COM1  1.2341e-8                              
02K61                              COM3  7.4095e-4                              
02K61                              COM1  1.2349e-8                              
02K62                              COM3  7.4084e-4                              
02K62                              COM1  1.2347e-8                              
02K63                              COM3  7.4108e-4                              
02K63                              COM1  1.2351e-8                              
02K64                              COM3  7.4078e-4                              
02K64                              COM1  1.2346e-8                              
02K65                              COM3  7.4090e-4                              
02K65                              COM1  1.2348e-8                              
02K66                              COM3  7.4068e-4                              
02K66                              COM1  1.2344e-8                              
02L11                              COM3  7.4034e-4                              
02L11                              COM1  1.2339e-8                              
02L12                              COM3  7.4022e-4                              
02L12                              COM1  1.2337e-8                              
02L13                              COM3  7.4045e-4                              
02L13                              COM1  1.2340e-8                              
02L18                              COM3  7.4104e-4                              
02L18                              COM1  1.2350e-8                              
03M38                              COM3  7.4011e-4                              
03M38                              COM1  1.2335e-8                              
03M39                              COM3  7.3849e-4                              
03M39                              COM1  1.2308e-8                              
03M40                              COM3  7.4021e-4                              
03M40                              COM1  1.2336e-8                              
03M41                              COM3  7.4055e-4                              
03M41                              COM1  1.2342e-8                              
03M42                              COM3  7.4193e-4                              
03M42                              COM1  1.2365e-8                              
03M45                              COM3  7.4033e-4                              
03M45                              COM1  1.2338e-8                              
03M46                              COM3  7.4066e-4                              
03M46                              COM1  1.2344e-8                              
03M50                              COM3  7.4077e-4                              
03M50                              COM1  1.2346e-8                              
03M57                              COM3  7.4000e-4                              
03M57                              COM1  1.2333e-8                              
03M58                              COM3  7.4011e-4                              
03M58                              COM1  1.2335e-8                              
03M59                              COM3  7.4044e-4                              
03M59                              COM1  1.2340e-8                              
03M62                              COM3  7.4089e-4                              
03M62                              COM1  1.2348e-8                              
04Q16                              COM3  7.4078e-4                              
04Q16                              COM1  1.2346e-8                              
04Q17                              COM3  7.4066e-4                              
04Q17                              COM1  1.2344e-8                              
05J81                              COM3  7.4055e-4                              
05J81                              COM1  1.2342e-8                              

ENDCY----1----*----2----*----3----*----4----*----5----*----6----*----7----*----8
