Basecase for CO2 injection                                                      
ROCKS----1----*----2----*----3----*----4----*----5----*----6----*----7----*----8
SAND     2    2700.0      0.25   5.0e-13   5.0e-11   5.0e-11       3.9    1000.0
    1.0e-8                 7.4       0.7                                                  
    7            0.9       0.4      0.75      0.25                              
    7            0.5       0.0    5.0e-5     1.0e7     0.999                    
WELL     2   2.64e43      0.99   5.0e-13   5.0e-11   5.0e-11       3.9    1000.0
    1.0e-8                 7.4       0.7                                                  
    7            0.9       0.4      0.75      0.25                              
    7            0.5       0.0    5.0e-5     1.0e7     0.999                    

MULTI----1----*----2----*----3----*----4----*----5----*----6----*----7----*----8
    3    4    3    6                                                            
START----1----*----2----*----3----*----4----*----5----*----6----*----7----*----8
PARAM----1-MOP: 123456789*123456789*1234----*----5----*----6----*----7----*----8
   29999    10001   1 1       04    8                                           
       1.0   7.887e8     100.0     1.0e8                9.81       4.0          
    1.0e-5       1.0                                                            
                                                                                
                                                                                
SELEC----1----*----2----*----3----*----4----*----5----*----6----*----7----*----8
    1                                                 3                         
       0.8       0.8                                                            
MOMOP----1----*----2----*----3----*----4----*----5----*----6----*----7----*----8
2                                                                               
TIMES----1----*----2----*----3----*----4----*----5----*----6----*----7----*----8
  101                                                                           
       0.0 7889400.0   1.578e7   2.367e7   3.156e7   3.945e7   4.734e7   5.523e7
   6.312e7     7.1e7   7.889e7   8.678e7   9.467e7   1.026e8   1.105e8   1.183e8
   1.262e8   1.341e8    1.42e8   1.499e8   1.578e8   1.657e8   1.736e8   1.815e8
   1.893e8   1.972e8   2.051e8    2.13e8   2.209e8   2.288e8   2.367e8   2.446e8
   2.525e8   2.604e8   2.682e8   2.761e8    2.84e8   2.919e8   2.998e8   3.077e8
   3.156e8   3.235e8   3.314e8   3.392e8   3.471e8    3.55e8   3.629e8   3.708e8
   3.787e8   3.866e8   3.945e8   4.024e8   4.102e8   4.181e8    4.26e8   4.339e8
   4.418e8   4.497e8   4.576e8   4.655e8   4.734e8   4.813e8   4.891e8    4.97e8
   5.049e8   5.128e8   5.207e8   5.286e8   5.365e8   5.444e8   5.523e8   5.601e8
    5.68e8   5.759e8   5.838e8   5.917e8   5.996e8   6.075e8   6.154e8   6.233e8
   6.312e8    6.39e8   6.469e8   6.548e8   6.627e8   6.706e8   6.785e8   6.864e8
   6.943e8   7.022e8     7.1e8   7.179e8   7.258e8   7.337e8   7.416e8   7.495e8
   7.574e8   7.653e8   7.732e8   7.811e8   7.889e8                              
GENER----1----*----2----*----3----*----4----*----5----*----6----*----7----*----8
00193                              COM3  7.3993e-4                              
00193                              COM1  1.2332e-8                              
00194                              COM3  7.3950e-4                              
00194                              COM1  1.2325e-8                              
00279                              COM3  7.4104e-4                              
00279                              COM1  1.2350e-8                              
00280                              COM3  7.4143e-4                              
00280                              COM1  1.2357e-8                              
00363                              COM3  7.4080e-4                              
00363                              COM1  1.2346e-8                              
00364                              COM3  7.4066e-4                              
00364                              COM1  1.2344e-8                              
00365                              COM3  7.4107e-4                              
00365                              COM1  1.2351e-8                              
00367                              COM3  7.4095e-4                              
00367                              COM1  1.2349e-8                              
00370                              COM3  7.4084e-4                              
00370                              COM1  1.2347e-8                              
00376                              COM3  7.4132e-4                              
00376                              COM1  1.2355e-8                              
00379                              COM3  7.4120e-4                              
00379                              COM1  1.2353e-8                              
00381                              COM3  7.4090e-4                              
00381                              COM1  1.2348e-8                              
00384                              COM3  7.4071e-4                              
00384                              COM1  1.2345e-8                              
00385                              COM3  7.4112e-4                              
00385                              COM1  1.2352e-8                              
00386                              COM3  7.4124e-4                              
00386                              COM1  1.2354e-8                              
00390                              COM3  7.4129e-4                              
00390                              COM1  1.2354e-8                              
00396                              COM3  7.4106e-4                              
00396                              COM1  1.2351e-8                              
00397                              COM3  7.4118e-4                              
00397                              COM1  1.2353e-8                              
00398                              COM3  7.4077e-4                              
00398                              COM1  1.2346e-8                              
00399                              COM3  7.4088e-4                              
00399                              COM1  1.2348e-8                              
00501                              COM3  7.4058e-4                              
00501                              COM1  1.2343e-8                              
00540                              COM3  7.4101e-4                              
00540                              COM1  1.2350e-8                              
00543                              COM3  7.4136e-4                              
00543                              COM1  1.2356e-8                              
00544                              COM3  7.4065e-4                              
00544                              COM1  1.2344e-8                              
00817                              COM3  7.4041e-4                              
00817                              COM1  1.2340e-8                              
00822                              COM3  7.4052e-4                              
00822                              COM1  1.2342e-8                              
00857                              COM3  7.4077e-4                              
00857                              COM1  1.2346e-8                              
00859                              COM3  7.4108e-4                              
00859                              COM1  1.2351e-8                              
00860                              COM3  7.4066e-4                              
00860                              COM1  1.2344e-8                              
00861                              COM3  7.4090e-4                              
00861                              COM1  1.2348e-8                              
00862                              COM3  7.4035e-4                              
00862                              COM1  1.2339e-8                              
00863                              COM3  7.4047e-4                              
00863                              COM1  1.2341e-8                              
00864                              COM3  7.4042e-4                              
00864                              COM1  1.2340e-8                              
00865                              COM3  7.4073e-4                              
00865                              COM1  1.2345e-8                              
00866                              COM3  7.4084e-4                              
00866                              COM1  1.2347e-8                              
00867                              COM3  7.4054e-4                              
00867                              COM1  1.2342e-8                              
00869                              COM3  7.4031e-4                              
00869                              COM1  1.2338e-8                              
00C33                              COM3  7.4016e-4                              
00C33                              COM1  1.2336e-8                              
00C50                              COM3  7.4027e-4                              
00C50                              COM1  1.2337e-8                              
00C51                              COM3  7.4038e-4                              
00C51                              COM1  1.2339e-8                              
00C52                              COM3  7.4070e-4                              
00C52                              COM1  1.2345e-8                              
00C53                              COM3  7.4058e-4                              
00C53                              COM1  1.2343e-8                              
00C55                              COM3  7.4081e-4                              
00C55                              COM1  1.2346e-8                              
00C56                              COM3  7.4051e-4                              
00C56                              COM1  1.2341e-8                              
00C58                              COM3  7.4096e-4                              
00C58                              COM1  1.2349e-8                              
00C63                              COM3  7.4101e-4                              
00C63                              COM1  1.2350e-8                              
00C64                              COM3  7.4059e-4                              
00C64                              COM1  1.2343e-8                              
00D12                              COM3  7.4025e-4                              
00D12                              COM1  1.2337e-8                              
00D13                              COM3  7.4037e-4                              
00D13                              COM1  1.2339e-8                              
00N51                              COM3  7.4103e-4                              
00N51                              COM1  1.2350e-8                              
00N52                              COM3  7.4062e-4                              
00N52                              COM1  1.2343e-8                              
00N53                              COM3  7.4018e-4                              
00N53                              COM1  1.2336e-8                              
00N54                              COM3  7.4094e-4                              
00N54                              COM1  1.2349e-8                              
00N56                              COM3  7.4112e-4                              
00N56                              COM1  1.2352e-8                              
00N58                              COM3  7.4070e-4                              
00N58                              COM1  1.2345e-8                              
00O62                              COM3  7.4047e-4                              
00O62                              COM1  1.2341e-8                              
00O94                              COM3  7.4451e-4                              
00O94                              COM1  1.2408e-8                              
00P07                              COM3  7.4034e-4                              
00P07                              COM1  1.2339e-8                              
00P08                              COM3  7.4022e-4                              
00P08                              COM1  1.2337e-8                              
00P10                              COM3  7.4000e-4                              
00P10                              COM1  1.2333e-8                              
00P11                              COM3  7.4068e-4                              
00P11                              COM1  1.2344e-8                              
00P12                              COM3  7.4023e-4                              
00P12                              COM1  1.2337e-8                              
00P13                              COM3  7.4035e-4                              
00P13                              COM1  1.2339e-8                              
00P15                              COM3  7.4056e-4                              
00P15                              COM1  1.2342e-8                              
00P16                              COM3  7.4013e-4                              
00P16                              COM1  1.2335e-8                              
01C87                              COM3  7.4082e-4                              
01C87                              COM1  1.2347e-8                              
01E42                              COM3  7.4011e-4                              
01E42                              COM1  1.2335e-8                              
01E43                              COM3  7.4057e-4                              
01E43                              COM1  1.2342e-8                              
01E44                              COM3  7.4068e-4                              
01E44                              COM1  1.2344e-8                              
01E46                              COM3  7.4088e-4                              
01E46                              COM1  1.2348e-8                              
01E47                              COM3  7.4046e-4                              
01E47                              COM1  1.2341e-8                              
01E48                              COM3  7.4013e-4                              
01E48                              COM1  1.2335e-8                              
01E50                              COM3  7.4044e-4                              
01E50                              COM1  1.2340e-8                              
02996                              COM3  7.4094e-4                              
02996                              COM1  1.2349e-8                              
02C54                              COM3  7.4079e-4                              
02C54                              COM1  1.2346e-8                              
02C55                              COM3  7.4091e-4                              
02C55                              COM1  1.2348e-8                              
02D73                              COM3  7.4078e-4                              
02D73                              COM1  1.2346e-8                              
03K67                              COM3  7.4078e-4                              
03K67                              COM1  1.2346e-8                              
03K69                              COM3  7.4193e-4                              
03K69                              COM1  1.2365e-8                              
03K70                              COM3  7.4056e-4                              
03K70                              COM1  1.2342e-8                              
04M26                              COM3  7.4068e-4                              
04M26                              COM1  1.2344e-8                              

ENDCY----1----*----2----*----3----*----4----*----5----*----6----*----7----*----8
